LTspice 24.1.9 for Windows
Circuit: C:\Users\Mohammad Amash\Documents\LTspice\Schmitt Trigger.net
Start Time: Thu Jun 19 17:32:14 2025
solver = Normal
Maximum thread count: 12
tnom = 27
temp = 27
method = trap
C:\Users\Mohammad Amash\Documents\LTspice\Schmitt Trigger.net(6): WARNING: Specified period is not longer than the sum of Trise, Tfall, and Ton. Increasing period to 0.002001.

V1 Input 0 PULSE(-3 3 0 1m 1m 0.001m 2m)
^^^^^^^^^^^^^^^^^^^^^^^^^^^^^^^^^^^^^^^^
Direct Newton iteration failed to find .op point.  (Use ".option noopiter" to skip.)
Starting Gmin stepping
Gmin = 10
vernier = 0.5
vernier = 0.25
vernier = 0.125
Gmin = 5.5165
vernier = 0.0625
vernier = 0.03125
vernier = 0.015625
vernier = 0.0078125
Gmin = 5.49501
vernier = 0.00390625
vernier = 0.00195312
vernier = 0.000976562
vernier = 0.000488281
Gmin = 5.50104
Gmin = 0
Gmin stepping failed

Starting source stepping with srcstepmethod=0
Source Step = 3.0303%
Source Step = 33.3333%
Source Step = 63.6364%
Source Step = 93.9394%
Source stepping succeeded in finding the operating point.

Total elapsed time: 0.291 seconds.

Files loaded:
C:\Users\Mohammad Amash\Documents\LTspice\Schmitt Trigger.net
C:\Users\Mohammad Amash\Documents\LTspice\ua741.txt

